/*--------------------------------*- C++ -*----------------------------------*\
| =========                 |                                                 |
| \\      /  F ield         | OpenFOAM: The Open Source CFD Toolbox           |
|  \\    /   O peration     | Version:  3.0.1                                 |
|   \\  /    A nd           | Web:      www.OpenFOAM.org                      |
|    \\/     M anipulation  |                                                 |
\*---------------------------------------------------------------------------*/
FoamFile
{
    version     2.0;
    format      ascii;
    class       volScalarField;
    location    "0";
    object      T;
}
// * * * * * * * * * * * * * * * * * * * * * * * * * * * * * * * * * * * * * //

dimensions      [0 0 0 1 0 0 0];

internalField   uniform 300;

boundaryField
{
    back
    {
        type            wedge;
    }
    front
    {
        type            wedge;
    }
    cavityRight
    {
        type            zeroGradient;
    }
    DIAPHRAGM
    {
        type            zeroGradient;
    }
    cavityTop
    {
        type            zeroGradient;
    }
    orificeRight
    {
        type            zeroGradient;
    }
    domainBottom
    {
        type            zeroGradient;
    }
    domainRight
    {
        type            zeroGradient;
    }
    domainTop
    {
        type            fixedGradient;
        gradient        uniform 1000;
    }
    defaultFaces
    {
        type            empty;
    }
}


// ************************************************************************* //
